#!/bin/sh
p() {
  echo "$1"
}

devices="$(cat /system/build.prop | grep ro.product.device= | cut -f 2 -d '=')"
siapagua="$(whoami)"

if [ ! -d "/sys/class/leds/lcd-backlight" ]; then
p "Ur device isn't support this module!, Aborted." && exit 1 
fi

MODPATH="/data/adb/modules/brightness-fix"
if [ ! -d "$MODPATH" ]; then
    p "Module path isn't found." && exit 1
else
    ver="$(cat $MODPATH/module.prop | grep version= | cut -f 2 -d '=')"
fi

clear
p
p "****** Brightness Fix Menu ******"
p "Module version: ${ver}"
p "Current Brightness: $(cat /sys/class/leds/lcd-backlight/brightness)"
p "Max Brightness: $(cat /sys/class/leds/lcd-backlight/max_brightness)"
p
p "[1] Max (2047)"
p "[2] Min (256)"
p "[3] Half (1023)"
p "[4] Custom (0 - 2047)"
p "[0] Exit"
p
echo -n "${devices}@${siapagua}: "; read choice

case "$choice" in
 1)
   clear
   set -x
   echo "2047" > "/sys/class/leds/lcd-backlight/brightness"
   echo "2047" > "$MODPATH/.tmp"
   kill $(pgrep -x auto_adj); nohup auto_adj > /dev/null 2>&1 ;;
  
 2)
   clear
   set -x 
   echo "256" > "/sys/class/leds/lcd-backlight/brightness"
   echo "256" > "$MODPATH/.tmp"
   kill $(pgrep -x auto_adj); nohup auto_adj > /dev/null 2>&1 ;;

 4)
   clear
   p
   p "Enter your custom brightness (0 - 2047)"
   p
   echo -n "${devices}@${siapagua}: "; read cusbr
   sleep 2
   echo "$cusbr" > "/sys/class/leds/lcd-backlight/brightness"
   echo "$cusbr" > "$MODPATH/.tmp"
   kill $(pgrep -x auto_adj); nohup auto_adj > /dev/null 2>&1 ;;
  
 3)
   clear
   set -x
   echo "1023" > "/sys/class/leds/lcd-backlight/brightness"
   echo "1023" > "$MODPATH/.tmp"
   kill $(pgrep -x auto_adj); nohup auto_adj > /dev/null 2>&1 ;;

 0)
   exit 0 ;;

 *)
   p
   p "Invalid input!, Aborted."
   sleep 1 && exit 1 ;;
esac
