#!/bin/sh
p() {
  echo "$1"
}

ver="2.1.0-s1"
MODPATH="/data/adb/modules/brightness-fix"
if [ ! -d "/sys/class/leds/lcd-backlight" ]; then
  p "Ur device isn't support this module!, Abort."
  exit 1
fi

clear
p
p "****** Brightness Fix Menu ******"
p "Module version: ${ver}"
p "Current Brightness: $(cat /sys/class/leds/lcd-backlight/brightness)"
p "Max Brightness: $(cat /sys/class/leds/lcd-backlight/max_brightness)"
p
p "[1] Max (2047)"
p "[2] Min (255)"
p "[3] Half (1023)"
p "[4] Custom (0 - 2047)"
p "[0] Exit"
p
echo -n "==> "; read choice

# 1
if [ "$choice" = "1" ]; then
  clear
  set -x
  echo "2047" >/sys/class/leds/lcd-backlight/brightness
  echo "2047" >$MODPATH/.tmp
  kill $(pgrep -f auto_adj); nohup auto_adj >/dev/null 2>&1

# 2
elif [ "$choice" = "2" ]; then
  clear
  set -x 
  echo "255" >/sys/class/leds/lcd-backlight/brightness
  echo "255" >$MODPATH/.tmp
  kill $(pgrep -f auto_adj); nohup auto_adj >/dev/null 2>&1

# 4
elif [ "$choice" = "4" ]; then
  clear
  p
  p "Enter your custom brightness (0 - 2047)"
  p
  echo -n "==> "; read cusbr
  sleep 2
  echo "$cusbr" >/sys/class/leds/lcd-backlight/brightness
  echo "$cusbr" >$MODPATH/.tmp
  kill $(pgrep -f auto_adj); nohup auto_adj >/dev/null 2>&1

# 3
elif [ "$choice" = "3" ]; then
  clear
  set -x
  echo "1023" >/sys/class/leds/lcd-backlight/brightness
  echo "1023" >$MODPATH/.tmp
  kill $(pgrep -f auto_adj); nohup auto_adj >/dev/null 2>&1

# exit choice function
elif [ "$choice" = "0" ]; then
  exit 0

# another input
else
  p
  p "Invalid input!, Abort."
  sleep 1
  exit 1
fi
